Y041-7676
  DSViewer          3D                             0

 52 55  0  0  0  0  0  0  0  0999 V2000
   11.1360    8.7764    5.7885 C   0  0
   10.3852    9.9789    5.6478 O   0  0
    9.2954    9.9970    4.8001 C   0  0
    8.5657   11.1861    4.7477 C   0  0
    7.4348   11.2894    3.9378 C   0  0
    7.0463   10.2078    3.1482 C   0  0
    7.7709    9.0212    3.1999 C   0  0
    8.8847    8.9045    4.0227 C   0  0
    5.8494   10.2443    2.2688 C   0  0
    4.6380    9.7997    2.7183 N   0  0
    3.6830    9.8281    1.7980 N   0  0
    4.2604   10.3139    0.7288 C   0  0
    3.4637   10.4927   -0.5356 C   0  0
    5.6191   10.6051    0.9334 C   0  0
    6.5646   11.1916   -0.1088 C   0  0
    6.9999   10.2147   -1.2233 C   0  0
    6.4291    9.1342   -1.3783 O   0  0
    8.0287   10.6012   -2.0023 N   0  0
    8.6426    9.7714   -3.0514 C   0  0
    7.8384    9.7173   -4.3702 C   0  0
    8.3584    8.6845   -5.3606 C   0  0
    8.2000    7.3999   -5.2315 N   0  0
    8.6829    6.8480   -6.3931 C   0  0
    8.7074    5.5059   -6.7999 C   0  0
    9.2834    5.2061   -8.0361 C   0  0
    9.8171    6.2085   -8.8487 C   0  0
    9.7993    7.5557   -8.4742 C   0  0
    9.2245    7.8448   -7.2340 C   0  0
    9.0001    9.0000   -6.5289 N   0  0
   11.9418    8.9371    6.5042 H   0  0
   10.5185    7.9591    6.1662 H   0  0
   11.5903    8.4740    4.8435 H   0  0
    8.8747   12.0250    5.3551 H   0  0
    6.8593   12.2011    3.9266 H   0  0
    7.4710    8.2000    2.5728 H   0  0
    9.4213    7.9681    4.0308 H   0  0
    4.4679    9.4427    3.6482 H   0  0
    3.8000   11.3709   -1.0900 H   0  0
    3.5991    9.6428   -1.2005 H   0  0
    2.3951   10.6000   -0.3495 H   0  0
    7.4289   11.6073    0.3915 H   0  0
    6.0892   12.0411   -0.5992 H   0  0
    8.4502   11.5000   -1.8294 H   0  0
    8.7907    8.7617   -2.6622 H   0  0
    9.6474   10.1448   -3.2532 H   0  0
    7.8195   10.7093   -4.8231 H   0  0
    6.7958    9.4862   -4.1453 H   0  0
    8.2978    4.7274   -6.1736 H   0  0
    9.3187    4.1791   -8.3703 H   0  0
   10.2558    5.9309   -9.7947 H   0  0
   10.2066    8.3273   -9.1102 H   0  0
    9.1488    9.9746   -6.8001 H   0  0
  1  2  1  0  0  0
  1 30  1  0  0  0
  1 31  1  0  0  0
  1 32  1  0  0  0
  2  3  1  0  0  0
  3  8  1  0  0  0
  3  4  2  0  0  0
  4  5  1  0  0  0
  4 33  1  0  0  0
  5  6  2  0  0  0
  5 34  1  0  0  0
  6  7  1  0  0  0
  6  9  1  0  0  0
  7  8  2  0  0  0
  7 35  1  0  0  0
  8 36  1  0  0  0
  9 14  2  0  0  0
  9 10  1  0  0  0
 10 11  1  0  0  0
 10 37  1  0  0  0
 11 12  2  0  0  0
 12 13  1  0  0  0
 12 14  1  0  0  0
 13 38  1  0  0  0
 13 39  1  0  0  0
 13 40  1  0  0  0
 14 15  1  0  0  0
 15 16  1  0  0  0
 15 41  1  0  0  0
 15 42  1  0  0  0
 16 17  2  0  0  0
 16 18  1  0  0  0
 18 19  1  0  0  0
 18 43  1  0  0  0
 19 20  1  0  0  0
 19 44  1  0  0  0
 19 45  1  0  0  0
 20 21  1  0  0  0
 20 46  1  0  0  0
 20 47  1  0  0  0
 21 29  1  0  0  0
 21 22  2  0  0  0
 22 23  1  0  0  0
 23 28  2  0  0  0
 23 24  1  0  0  0
 24 25  2  0  0  0
 24 48  1  0  0  0
 25 26  1  0  0  0
 25 49  1  0  0  0
 26 27  2  0  0  0
 26 50  1  0  0  0
 27 28  1  0  0  0
 27 51  1  0  0  0
 28 29  1  0  0  0
 29 52  1  0  0  0
M  END
$$$$
