Y043-2213
  DSViewer          3D                             0

 44 47  0  0  0  0  0  0  0  0999 V2000
   11.2091    2.8023   -8.9464 C   0  0
   10.1735    3.6346   -8.2148 C   0  0
    9.1674    2.9929   -7.4890 C   0  0
    8.1885    3.6997   -6.8023 C   0  0
    8.1652    5.0898   -6.8009 C   0  0
    9.1634    5.7483   -7.5291 C   0  0
   10.1765    5.0402   -8.2392 C   0  0
   11.0213    6.0247   -8.8464 C   0  0
   10.5210    7.2609   -8.5009 C   0  0
    9.3907    7.0984   -7.7335 N   0  0
    8.5999    8.1699   -7.1625 C   0  0
    9.1837    8.6075   -5.8041 C   0  0
    8.1635    9.1460   -4.7960 C   0  0
    7.0025    9.3999   -5.1236 O   0  0
    8.6691    9.3289   -3.5679 N   0  0
    8.0208   10.0048   -2.5638 C   0  0
    6.8764    9.7050   -1.9939 N   0  0
    6.5780   10.5889   -1.0492 C   0  0
    7.4206   11.6935   -0.9952 C   0  0
    8.7983   11.4249   -2.0001 S   0  0
    5.4603   10.4057   -0.0957 C   0  0
    4.1993    9.9524   -0.4883 C   0  0
    3.1996    9.8541    0.4792 C   0  0
    3.3999   10.1932    1.7791 N   0  0
    4.6320   10.6006    2.1573 C   0  0
    5.6831   10.7204    1.2542 C   0  0
   11.2351    3.0897   -9.9937 H   0  0
   10.9999    1.7329   -8.8920 H   0  0
   12.1947    3.0007   -8.5251 H   0  0
    9.1446    1.9143   -7.4482 H   0  0
    7.4236    3.1618   -6.2577 H   0  0
    7.4011    5.6268   -6.2622 H   0  0
   11.8987    5.8449   -9.4452 H   0  0
   10.8744    8.2562   -8.7420 H   0  0
    8.6000    8.9994   -7.8676 H   0  0
    7.5753    7.8000   -7.0793 H   0  0
    9.7264    7.7926   -5.3302 H   0  0
    9.9100    9.4039   -5.9830 H   0  0
    9.6728    9.2450   -3.4782 H   0  0
    7.3610   12.5523   -0.3464 H   0  0
    3.9971    9.7053   -1.5207 H   0  0
    2.2045    9.5119    0.2225 H   0  0
    4.7660   10.8302    3.2039 H   0  0
    6.6518   11.0465    1.6005 H   0  0
  1  2  1  0  0  0
  1 27  1  0  0  0
  1 28  1  0  0  0
  1 29  1  0  0  0
  2  7  1  0  0  0
  2  3  2  0  0  0
  3  4  1  0  0  0
  3 30  1  0  0  0
  4  5  2  0  0  0
  4 31  1  0  0  0
  5  6  1  0  0  0
  5 32  1  0  0  0
  6 10  1  0  0  0
  6  7  2  0  0  0
  7  8  1  0  0  0
  8  9  2  0  0  0
  8 33  1  0  0  0
  9 10  1  0  0  0
  9 34  1  0  0  0
 10 11  1  0  0  0
 11 12  1  0  0  0
 11 35  1  0  0  0
 11 36  1  0  0  0
 12 13  1  0  0  0
 12 37  1  0  0  0
 12 38  1  0  0  0
 13 14  2  0  0  0
 13 15  1  0  0  0
 15 16  1  0  0  0
 15 39  1  0  0  0
 16 20  1  0  0  0
 16 17  2  0  0  0
 17 18  1  0  0  0
 18 19  2  0  0  0
 18 21  1  0  0  0
 19 20  1  0  0  0
 19 40  1  0  0  0
 21 26  1  0  0  0
 21 22  2  0  0  0
 22 23  1  0  0  0
 22 41  1  0  0  0
 23 24  2  0  0  0
 23 42  1  0  0  0
 24 25  1  0  0  0
 25 26  2  0  0  0
 25 43  1  0  0  0
 26 44  1  0  0  0
M  END
$$$$
