G194-0430
  DSViewer          3D                             0

 51 53  0  0  0  0  0  0  0  0999 V2000
    9.8751    9.8000   -5.4327 C   0  0
    9.8148   10.6481   -4.2800 O   0  0
    8.7534   10.5408   -3.4017 C   0  0
    7.6364    9.7352   -3.6490 C   0  0
    6.5995    9.6645   -2.7304 C   0  0
    6.6171   10.3926   -1.5391 C   0  0
    7.7294   11.2178   -1.3021 C   0  0
    8.7985   11.2676   -2.2025 C   0  0
   10.1988   12.1998   -1.7869 Cl  0  0
    5.5722   10.2468   -0.5730 N   0  0
    4.2433   10.2302   -0.9643 C   0  0
    3.2303   10.0738   -0.0688 C   0  0
    3.4603    9.9325    1.2753 N   0  0
    4.6898    9.9336    1.6652 C   0  0
    4.9085    9.8716    3.0376 N   0  0
    5.4832   11.0175    3.7555 C   0  0
    6.9874   11.3548    3.6001 C   0  0
    8.0516   10.4675    4.2259 C   0  0
    8.0876    9.0903    4.0000 C   0  0
    9.1397    8.3221    4.4994 C   0  0
   10.1838    8.9232    5.2266 C   0  0
   11.2383    8.2301    5.7890 O   0  0
   11.3165    6.8271    5.5996 C   0  0
   10.1643   10.3126    5.4122 C   0  0
   11.1629   10.9588    6.0982 O   0  0
   12.3477   11.1706    5.3429 C   0  0
    9.1018   11.0699    4.9232 C   0  0
    5.8737    9.9617    0.7460 C   0  0
    7.0000    9.6624    1.1169 O   0  0
   10.6564   10.1711   -6.0952 H   0  0
   10.1271    8.7666   -5.1999 H   0  0
    8.9468    9.8000   -6.0000 H   0  0
    7.5498    9.1396   -4.5434 H   0  0
    5.8000    8.9999   -2.9569 H   0  0
    7.7937   11.7879   -0.3884 H   0  0
    4.0902   10.3730   -2.0236 H   0  0
    2.2002   10.0733   -0.3973 H   0  0
    4.1161    9.5029    3.5466 H   0  0
    5.2028   11.0000    4.8000 H   0  0
    4.9510   11.8914    3.3728 H   0  0
    7.1132   12.3600    3.9993 H   0  0
    7.2693   11.4001    2.5609 H   0  0
    7.3046    8.6101    3.4320 H   0  0
    9.1254    7.2589    4.3126 H   0  0
   12.1989    6.4411    6.1092 H   0  0
   11.4000    6.6001    4.5383 H   0  0
   10.4471    6.3111    6.0007 H   0  0
   13.0673   11.7193    5.9503 H   0  0
   12.8148   10.2311    5.0432 H   0  0
   12.1498   11.7624    4.4471 H   0  0
    9.1150   12.1387    5.0823 H   0  0
  1  2  1  0  0  0
  1 30  1  0  0  0
  1 31  1  0  0  0
  1 32  1  0  0  0
  2  3  1  0  0  0
  3  8  1  0  0  0
  3  4  2  0  0  0
  4  5  1  0  0  0
  4 33  1  0  0  0
  5  6  2  0  0  0
  5 34  1  0  0  0
  6  7  1  0  0  0
  6 10  1  0  0  0
  7  8  2  0  0  0
  7 35  1  0  0  0
  8  9  1  0  0  0
 10 28  1  0  0  0
 10 11  1  0  0  0
 11 12  2  0  0  0
 11 36  1  0  0  0
 12 13  1  0  0  0
 12 37  1  0  0  0
 13 14  2  0  0  0
 14 15  1  0  0  0
 14 28  1  0  0  0
 15 16  1  0  0  0
 15 38  1  0  0  0
 16 17  1  0  0  0
 16 39  1  0  0  0
 16 40  1  0  0  0
 17 18  1  0  0  0
 17 41  1  0  0  0
 17 42  1  0  0  0
 18 27  1  0  0  0
 18 19  2  0  0  0
 19 20  1  0  0  0
 19 43  1  0  0  0
 20 21  2  0  0  0
 20 44  1  0  0  0
 21 22  1  0  0  0
 21 24  1  0  0  0
 22 23  1  0  0  0
 23 45  1  0  0  0
 23 46  1  0  0  0
 23 47  1  0  0  0
 24 25  1  0  0  0
 24 27  2  0  0  0
 25 26  1  0  0  0
 26 48  1  0  0  0
 26 49  1  0  0  0
 26 50  1  0  0  0
 27 51  1  0  0  0
 28 29  2  0  0  0
M  END
$$$$
