S425-0704
  DSViewer          3D                             0

 54 57  0  0  0  0  0  0  0  0999 V2000
    8.6801   10.6211    5.1958 F   0  0
    7.6956   10.4954    4.2786 C   0  0
    6.6390   11.4000    4.2665 C   0  0
    5.6597   11.3251    3.2809 C   0  0
    5.7459   10.3330    2.3086 C   0  0
    6.7782    9.3963    2.3512 C   0  0
    7.7503    9.4705    3.3424 C   0  0
    4.7750   10.2873    1.1919 C   0  0
    3.5665    9.7987    1.3790 N   0  0
    3.0022    9.8001    0.1701 N   0  0
    3.8385   10.2759   -0.8006 C   0  0
    4.9621   10.7324   -0.1334 C   0  0
    6.0986   11.4238   -0.6980 C   0  0
    6.1996   12.6316   -0.5029 O   0  0
    7.0095   10.7118   -1.4112 N   0  0
    8.2011   11.3755   -2.0005 C   0  0
    8.2413   11.0448   -3.5190 C   0  0
    8.1808    9.5455   -3.7777 C   0  0
    6.9489    8.9999   -3.0903 C   0  0
    6.9256    9.2556   -1.5872 C   0  0
    8.0396    9.2076   -5.1553 O   0  0
    9.1609    8.6015   -5.7850 C   0  0
    8.6737    7.5394   -6.7771 C   0  0
    9.7938    6.7669   -7.2009 O   0  0
    9.5992    5.5662   -7.8540 C   0  0
   10.7550    4.8817   -8.2342 C   0  0
   10.6700    3.6649   -8.9037 C   0  0
    9.4181    3.1345   -9.2001 C   0  0
    8.2544    3.7989   -8.8237 C   0  0
    8.3427    5.0113   -8.1474 C   0  0
    6.5999   12.1827    5.0018 H   0  0
    4.8631   12.0537    3.2434 H   0  0
    6.8503    8.6251    1.6006 H   0  0
    8.5655    8.7622    3.3587 H   0  0
    2.0530    9.4757    0.0120 H   0  0
    3.5406   10.3121   -1.8377 H   0  0
    8.2011   12.4566   -1.8511 H   0  0
    9.0866   10.9652   -1.5126 H   0  0
    7.4056   11.5520   -4.0027 H   0  0
    9.1645   11.4218   -3.9525 H   0  0
    9.0543    9.0716   -3.3232 H   0  0
    6.9993    7.9226   -3.2000 H   0  0
    6.0337    9.3888   -3.5421 H   0  0
    7.7999    8.8004   -1.1312 H   0  0
    6.0503    8.7864   -1.1392 H   0  0
    9.7619    9.3648   -6.2805 H   0  0
    9.8015    8.1036   -5.0634 H   0  0
    7.9290    6.9200   -6.2739 H   0  0
    8.2011    8.0071   -7.6399 H   0  0
   11.7245    5.2990   -7.9999 H   0  0
   11.5677    3.1376   -9.1917 H   0  0
    9.3478    2.1996   -9.7306 H   0  0
    7.2872    3.3786   -9.0569 H   0  0
    7.4243    5.5009   -7.8656 H   0  0
  1  2  1  0  0  0
  2  7  1  0  0  0
  2  3  2  0  0  0
  3  4  1  0  0  0
  3 31  1  0  0  0
  4  5  2  0  0  0
  4 32  1  0  0  0
  5  6  1  0  0  0
  5  8  1  0  0  0
  6  7  2  0  0  0
  6 33  1  0  0  0
  7 34  1  0  0  0
  8 12  1  0  0  0
  8  9  2  0  0  0
  9 10  1  0  0  0
 10 11  1  0  0  0
 10 35  1  0  0  0
 11 12  2  0  0  0
 11 36  1  0  0  0
 12 13  1  0  0  0
 13 14  2  0  0  0
 13 15  1  0  0  0
 15 20  1  0  0  0
 15 16  1  0  0  0
 16 17  1  0  0  0
 16 37  1  0  0  0
 16 38  1  0  0  0
 17 18  1  0  0  0
 17 39  1  0  0  0
 17 40  1  0  0  0
 18 19  1  0  0  0
 18 21  1  0  0  0
 18 41  1  0  0  0
 19 20  1  0  0  0
 19 42  1  0  0  0
 19 43  1  0  0  0
 20 44  1  0  0  0
 20 45  1  0  0  0
 21 22  1  0  0  0
 22 23  1  0  0  0
 22 46  1  0  0  0
 22 47  1  0  0  0
 23 24  1  0  0  0
 23 48  1  0  0  0
 23 49  1  0  0  0
 24 25  1  0  0  0
 25 30  1  0  0  0
 25 26  2  0  0  0
 26 27  1  0  0  0
 26 50  1  0  0  0
 27 28  2  0  0  0
 27 51  1  0  0  0
 28 29  1  0  0  0
 28 52  1  0  0  0
 29 30  2  0  0  0
 29 53  1  0  0  0
 30 54  1  0  0  0
M  END
$$$$
